<?xml version="1.0" encoding="UTF-8"?>

<!-- generated on 2025-04-10 19:23:30 by Eclipse SUMO netedit Version 1.22.0
<neteditConfiguration xmlns:xsi="http://www.w3.org/2001/XMLSchema-instance" xsi:noNamespaceSchemaLocation="http://sumo.dlr.de/xsd/neteditConfiguration.xsd">

    <input>
        <sumo-net-file value="C:\Users\neera\OneDrive\Pictures\work\sem4\Project\lastcopy\copy6.net.xml"/>
    </input>

    <output>
        <output-file value="C:\Users\neera\OneDrive\Pictures\work\sem4\Project\lastcopy\copy6.net.xml"/>
    </output>

    <processing>
        <geometry.min-radius.fix.railways value="false"/>
        <geometry.max-grade.fix value="false"/>
        <offset.disable-normalization value="true"/>
        <lefthand value="0"/>
    </processing>

    <junctions>
        <no-turnarounds value="true"/>
        <junctions.corner-detail value="5"/>
        <junctions.limit-turn-speed value="5.50"/>
        <rectangular-lane-cut value="0"/>
    </junctions>

    <pedestrian>
        <walkingareas value="0"/>
    </pedestrian>

</neteditConfiguration>
-->

<net version="1.20" junctionCornerDetail="5" limitTurnSpeed="5.50" xmlns:xsi="http://www.w3.org/2001/XMLSchema-instance" xsi:noNamespaceSchemaLocation="http://sumo.dlr.de/xsd/net_file.xsd">

    <location netOffset="1200.00,900.00" convBoundary="0.00,0.00,2001.72,2000.00" origBoundary="-1200.00,-900.00,800.00,1100.00" projParameter="!"/>

    <edge id=":1_0" function="internal">
        <lane id=":1_0_0" index="0" speed="6.51" length="9.03" shape="1198.40,907.20 1198.05,904.75 1197.00,903.00 1195.25,901.95 1192.80,901.60"/>
    </edge>
    <edge id=":1_1" function="internal">
        <lane id=":1_1_0" index="0" speed="13.89" length="14.40" shape="1198.40,907.20 1198.40,892.80"/>
    </edge>
    <edge id=":1_2" function="internal">
        <lane id=":1_2_0" index="0" speed="8.00" length="10.30" shape="1198.40,907.20 1198.95,903.35 1200.60,900.60 1203.35,898.95"/>
    </edge>
    <edge id=":1_3" function="internal">
        <lane id=":1_3_0" index="0" speed="3.65" length="1.44" shape="1198.40,907.20 1199.20,906.00"/>
    </edge>
    <edge id=":1_16" function="internal">
        <lane id=":1_16_0" index="0" speed="8.00" length="3.89" shape="1203.35,898.95 1207.20,898.40"/>
    </edge>
    <edge id=":1_17" function="internal">
        <lane id=":1_17_0" index="0" speed="3.65" length="3.23" shape="1199.20,906.00 1200.00,905.60 1200.80,906.00 1201.60,907.20"/>
    </edge>
    <edge id=":1_4" function="internal">
        <lane id=":1_4_0" index="0" speed="6.51" length="9.03" shape="1207.20,901.60 1204.75,901.95 1203.00,903.00 1201.95,904.75 1201.60,907.20"/>
    </edge>
    <edge id=":1_5" function="internal">
        <lane id=":1_5_0" index="0" speed="13.89" length="14.40" shape="1207.20,901.60 1192.80,901.60"/>
    </edge>
    <edge id=":1_6" function="internal">
        <lane id=":1_6_0" index="0" speed="8.00" length="10.30" shape="1207.20,901.60 1203.35,901.05 1200.60,899.40 1198.95,896.65"/>
    </edge>
    <edge id=":1_7" function="internal">
        <lane id=":1_7_0" index="0" speed="3.65" length="1.44" shape="1207.20,901.60 1206.00,900.80"/>
    </edge>
    <edge id=":1_18" function="internal">
        <lane id=":1_18_0" index="0" speed="8.00" length="3.89" shape="1198.95,896.65 1198.40,892.80"/>
    </edge>
    <edge id=":1_19" function="internal">
        <lane id=":1_19_0" index="0" speed="3.65" length="3.23" shape="1206.00,900.80 1205.60,900.00 1206.00,899.20 1207.20,898.40"/>
    </edge>
    <edge id=":1_8" function="internal">
        <lane id=":1_8_0" index="0" speed="6.51" length="9.03" shape="1201.60,892.80 1201.95,895.25 1203.00,897.00 1204.75,898.05 1207.20,898.40"/>
    </edge>
    <edge id=":1_9" function="internal">
        <lane id=":1_9_0" index="0" speed="13.89" length="14.40" shape="1201.60,892.80 1201.60,907.20"/>
    </edge>
    <edge id=":1_10" function="internal">
        <lane id=":1_10_0" index="0" speed="8.00" length="10.30" shape="1201.60,892.80 1201.05,896.65 1199.40,899.40 1196.65,901.05"/>
    </edge>
    <edge id=":1_11" function="internal">
        <lane id=":1_11_0" index="0" speed="3.65" length="1.44" shape="1201.60,892.80 1200.80,894.00"/>
    </edge>
    <edge id=":1_20" function="internal">
        <lane id=":1_20_0" index="0" speed="8.00" length="3.89" shape="1196.65,901.05 1192.80,901.60"/>
    </edge>
    <edge id=":1_21" function="internal">
        <lane id=":1_21_0" index="0" speed="3.65" length="3.23" shape="1200.80,894.00 1200.00,894.40 1199.20,894.00 1198.40,892.80"/>
    </edge>
    <edge id=":1_12" function="internal">
        <lane id=":1_12_0" index="0" speed="6.51" length="9.03" shape="1192.80,898.40 1195.25,898.05 1197.00,897.00 1198.05,895.25 1198.40,892.80"/>
    </edge>
    <edge id=":1_13" function="internal">
        <lane id=":1_13_0" index="0" speed="13.89" length="14.40" shape="1192.80,898.40 1207.20,898.40"/>
    </edge>
    <edge id=":1_14" function="internal">
        <lane id=":1_14_0" index="0" speed="8.00" length="10.30" shape="1192.80,898.40 1196.65,898.95 1199.40,900.60 1201.05,903.35"/>
    </edge>
    <edge id=":1_15" function="internal">
        <lane id=":1_15_0" index="0" speed="3.65" length="1.44" shape="1192.80,898.40 1194.00,899.20"/>
    </edge>
    <edge id=":1_22" function="internal">
        <lane id=":1_22_0" index="0" speed="8.00" length="3.89" shape="1201.05,903.35 1201.60,907.20"/>
    </edge>
    <edge id=":1_23" function="internal">
        <lane id=":1_23_0" index="0" speed="3.65" length="3.23" shape="1194.00,899.20 1194.40,900.00 1194.00,900.80 1192.80,901.60"/>
    </edge>
    <edge id=":10_0" function="internal">
        <lane id=":10_0_0" index="0" speed="6.08" length="7.74" shape="1098.40,903.20 1098.70,901.10 1099.60,899.60 1101.10,898.70 1103.20,898.40"/>
    </edge>
    <edge id=":10_1" function="internal">
        <lane id=":10_1_0" index="0" speed="3.65" length="1.44" shape="1098.40,903.20 1099.20,902.00"/>
    </edge>
    <edge id=":10_4" function="internal">
        <lane id=":10_4_0" index="0" speed="3.65" length="3.23" shape="1099.20,902.00 1100.00,901.60 1100.80,902.00 1101.60,903.20"/>
    </edge>
    <edge id=":10_2" function="internal">
        <lane id=":10_2_0" index="0" speed="3.90" length="2.58" shape="1103.20,901.60 1102.50,901.70 1102.00,902.00 1101.70,902.50 1101.60,903.20"/>
    </edge>
    <edge id=":10_3" function="internal">
        <lane id=":10_3_0" index="0" speed="3.65" length="1.30" shape="1103.20,901.60 1102.12,900.88"/>
    </edge>
    <edge id=":10_5" function="internal">
        <lane id=":10_5_0" index="0" speed="3.65" length="3.37" shape="1102.12,900.88 1102.00,900.80 1101.60,900.00 1102.00,899.20 1103.20,898.40"/>
    </edge>
    <edge id=":1001_0" function="internal">
        <lane id=":1001_0_0" index="0" speed="4.15" length="1.22" shape="401.33,701.60 400.19,702.07"/>
    </edge>
    <edge id=":1001_1" function="internal">
        <lane id=":1001_1_0" index="0" speed="3.65" length="1.44" shape="401.33,701.60 400.13,700.80"/>
    </edge>
    <edge id=":1001_4" function="internal">
        <lane id=":1001_4_0" index="0" speed="3.65" length="3.23" shape="400.13,700.80 399.73,700.00 400.13,699.20 401.33,698.40"/>
    </edge>
    <edge id=":1001_2" function="internal">
        <lane id=":1001_2_0" index="0" speed="6.63" length="3.77" shape="397.93,699.81 398.67,699.19 399.48,698.75 400.37,698.49 401.33,698.40"/>
    </edge>
    <edge id=":1001_3" function="internal">
        <lane id=":1001_3_0" index="0" speed="3.65" length="2.34" shape="397.93,699.81 399.35,699.52 400.19,699.81"/>
    </edge>
    <edge id=":1001_5" function="internal">
        <lane id=":1001_5_0" index="0" speed="3.65" length="2.34" shape="400.19,699.81 400.48,700.65 400.19,702.07"/>
    </edge>
    <edge id=":1024_0" function="internal">
        <lane id=":1024_0_0" index="0" speed="6.51" length="9.03" shape="498.40,1207.20 498.05,1204.75 497.00,1203.00 495.25,1201.95 492.80,1201.60"/>
    </edge>
    <edge id=":1024_1" function="internal">
        <lane id=":1024_1_0" index="0" speed="8.00" length="14.19" shape="498.40,1207.20 498.95,1203.35 500.60,1200.60 503.35,1198.95 507.20,1198.40"/>
    </edge>
    <edge id=":1024_2" function="internal">
        <lane id=":1024_2_0" index="0" speed="3.65" length="4.67" shape="498.40,1207.20 499.20,1206.00 500.00,1205.60 500.80,1206.00 501.60,1207.20"/>
    </edge>
    <edge id=":1024_3" function="internal">
        <lane id=":1024_3_0" index="0" speed="6.51" length="9.03" shape="507.20,1201.60 504.75,1201.95 503.00,1203.00 501.95,1204.75 501.60,1207.20"/>
    </edge>
    <edge id=":1024_4" function="internal">
        <lane id=":1024_4_0" index="0" speed="13.89" length="14.40" shape="507.20,1201.60 492.80,1201.60"/>
    </edge>
    <edge id=":1024_5" function="internal">
        <lane id=":1024_5_0" index="0" speed="3.65" length="4.67" shape="507.20,1201.60 506.00,1200.80 505.60,1200.00 506.00,1199.20 507.20,1198.40"/>
    </edge>
    <edge id=":1024_6" function="internal">
        <lane id=":1024_6_0" index="0" speed="13.89" length="14.40" shape="492.80,1198.40 507.20,1198.40"/>
    </edge>
    <edge id=":1024_7" function="internal">
        <lane id=":1024_7_0" index="0" speed="8.00" length="14.19" shape="492.80,1198.40 496.65,1198.95 499.40,1200.60 501.05,1203.35 501.60,1207.20"/>
    </edge>
    <edge id=":1024_8" function="internal">
        <lane id=":1024_8_0" index="0" speed="3.65" length="4.67" shape="492.80,1198.40 494.00,1199.20 494.40,1200.00 494.00,1200.80 492.80,1201.60"/>
    </edge>
    <edge id=":1033_0" function="internal">
        <lane id=":1033_0_0" index="0" speed="3.65" length="4.67" shape="800.00,698.40 801.20,699.20 801.60,700.00 801.20,700.80 800.00,701.60"/>
    </edge>
    <edge id=":108_0" function="internal">
        <lane id=":108_0_0" index="0" speed="9.25" length="1.88" shape="1101.60,999.39 1101.59,999.94 1101.55,1000.32 1101.44,1000.69 1101.23,1001.21"/>
    </edge>
    <edge id=":108_1" function="internal">
        <lane id=":108_1_0" index="0" speed="3.65" length="1.44" shape="1101.60,999.39 1100.80,1000.59"/>
    </edge>
    <edge id=":108_4" function="internal">
        <lane id=":108_4_0" index="0" speed="3.65" length="3.23" shape="1100.80,1000.59 1100.00,1000.99 1099.20,1000.59 1098.40,999.39"/>
    </edge>
    <edge id=":108_2" function="internal">
        <lane id=":108_2_0" index="0" speed="13.89" length="0.63" shape="1098.28,1000.00 1098.35,999.82 1098.38,999.70 1098.40,999.58 1098.40,999.39"/>
    </edge>
    <edge id=":108_3" function="internal">
        <lane id=":108_3_0" index="0" speed="3.65" length="1.44" shape="1098.28,1000.00 1099.47,999.19"/>
    </edge>
    <edge id=":108_5" function="internal">
        <lane id=":108_5_0" index="0" speed="3.65" length="3.22" shape="1099.47,999.19 1100.36,999.13 1100.95,999.80 1101.23,1001.21"/>
    </edge>
    <edge id=":1153_0" function="internal">
        <lane id=":1153_0_0" index="0" speed="7.85" length="9.87" shape="407.20,1201.60 404.42,1201.90 402.18,1202.79 400.48,1204.29 399.31,1206.38"/>
    </edge>
    <edge id=":1153_1" function="internal">
        <lane id=":1153_1_0" index="0" speed="8.00" length="14.19" shape="407.20,1201.60 403.35,1201.05 400.60,1199.40 398.95,1196.65 398.40,1192.80"/>
    </edge>
    <edge id=":1153_2" function="internal">
        <lane id=":1153_2_0" index="0" speed="3.65" length="4.67" shape="407.20,1201.60 406.00,1200.80 405.60,1200.00 406.00,1199.20 407.20,1198.40"/>
    </edge>
    <edge id=":1153_3" function="internal">
        <lane id=":1153_3_0" index="0" speed="6.51" length="9.03" shape="401.60,1192.80 401.95,1195.25 403.00,1197.00 404.75,1198.05 407.20,1198.40"/>
    </edge>
    <edge id=":1153_4" function="internal">
        <lane id=":1153_4_0" index="0" speed="13.89" length="13.85" shape="401.60,1192.80 401.49,1196.37 401.11,1199.71 400.41,1202.99 399.31,1206.38"/>
    </edge>
    <edge id=":1153_5" function="internal">
        <lane id=":1153_5_0" index="0" speed="3.65" length="1.44" shape="401.60,1192.80 400.80,1194.00"/>
    </edge>
    <edge id=":1153_9" function="internal">
        <lane id=":1153_9_0" index="0" speed="3.65" length="3.23" shape="400.80,1194.00 400.00,1194.40 399.20,1194.00 398.40,1192.80"/>
    </edge>
    <edge id=":1153_6" function="internal">
        <lane id=":1153_6_0" index="0" speed="13.89" length="12.72" shape="396.36,1205.27 397.40,1202.04 398.03,1199.15 398.32,1196.20 398.40,1192.80"/>
    </edge>
    <edge id=":1153_7" function="internal">
        <lane id=":1153_7_0" index="0" speed="9.14" length="3.42" shape="396.36,1205.27 397.98,1202.26"/>
    </edge>
    <edge id=":1153_8" function="internal">
        <lane id=":1153_8_0" index="0" speed="3.64" length="1.32" shape="396.36,1205.27 397.43,1204.50"/>
    </edge>
    <edge id=":1153_10" function="internal">
        <lane id=":1153_10_0" index="0" speed="9.14" length="10.33" shape="397.98,1202.26 400.33,1200.12 403.40,1198.83 407.20,1198.40"/>
    </edge>
    <edge id=":1153_11" function="internal">
        <lane id=":1153_11_0" index="0" speed="3.64" length="3.29" shape="397.43,1204.50 397.51,1204.44 398.39,1204.35 398.99,1204.99 399.31,1206.38"/>
    </edge>
    <edge id=":1167_0" function="internal">
        <lane id=":1167_0_0" index="0" speed="13.89" length="1.12" shape="498.53,1300.73 498.46,1300.41 498.42,1300.19 498.40,1299.96 498.40,1299.63"/>
    </edge>
    <edge id=":1167_1" function="internal">
        <lane id=":1167_1_0" index="0" speed="3.65" length="1.44" shape="498.53,1300.73 499.03,1299.38"/>
    </edge>
    <edge id=":1167_4" function="internal">
        <lane id=":1167_4_0" index="0" speed="3.65" length="3.23" shape="499.03,1299.38 499.72,1298.81 500.59,1299.01 501.64,1299.99"/>
    </edge>
    <edge id=":1167_2" function="internal">
        <lane id=":1167_2_0" index="0" speed="13.89" length="0.37" shape="501.60,1299.63 501.60,1299.74 501.61,1299.81 501.62,1299.89 501.64,1299.99"/>
    </edge>
    <edge id=":1167_3" function="internal">
        <lane id=":1167_3_0" index="0" speed="3.65" length="1.44" shape="501.60,1299.63 500.80,1300.83"/>
    </edge>
    <edge id=":1167_5" function="internal">
        <lane id=":1167_5_0" index="0" speed="3.65" length="3.23" shape="500.80,1300.83 500.00,1301.23 499.20,1300.83 498.40,1299.63"/>
    </edge>
    <edge id=":1177_0" function="internal">
        <lane id=":1177_0_0" index="0" speed="6.03" length="7.65" shape="1602.40,398.99 1602.11,401.03 1601.21,402.49 1599.71,403.37 1597.59,403.66"/>
    </edge>
    <edge id=":1177_1" function="internal">
        <lane id=":1177_1_0" index="0" speed="3.65" length="1.44" shape="1602.40,398.99 1601.61,400.20"/>
    </edge>
    <edge id=":1177_4" function="internal">
        <lane id=":1177_4_0" index="0" speed="3.65" length="3.23" shape="1601.61,400.20 1600.81,400.60 1600.01,400.21 1599.20,399.02"/>
    </edge>
    <edge id=":1177_2" function="internal">
        <lane id=":1177_2_0" index="0" speed="3.95" length="2.57" shape="1597.59,400.63 1598.30,400.50 1598.80,400.18 1599.10,399.69 1599.20,399.02"/>
    </edge>
    <edge id=":1177_3" function="internal">
        <lane id=":1177_3_0" index="0" speed="3.21" length="3.03" shape="1597.59,400.63 1597.59,403.66"/>
    </edge>
    <edge id=":1185_0" function="internal">
        <lane id=":1185_0_0" index="0" speed="7.96" length="2.31" shape="1598.40,700.79 1598.41,700.10 1598.47,699.63 1598.63,699.19 1598.93,698.58"/>
    </edge>
    <edge id=":1185_1" function="internal">
        <lane id=":1185_1_0" index="0" speed="3.65" length="1.44" shape="1598.40,700.79 1599.20,699.59"/>
    </edge>
    <edge id=":1185_4" function="internal">
        <lane id=":1185_4_0" index="0" speed="3.65" length="3.23" shape="1599.20,699.59 1600.00,699.19 1600.80,699.59 1601.60,700.79"/>
    </edge>
    <edge id=":1185_2" function="internal">
        <lane id=":1185_2_0" index="0" speed="13.89" length="0.77" shape="1601.78,700.05 1601.68,700.25 1601.62,700.40 1601.60,700.56 1601.60,700.79"/>
    </edge>
    <edge id=":1185_3" function="internal">
        <lane id=":1185_3_0" index="0" speed="3.65" length="1.44" shape="1601.78,700.05 1600.52,700.75"/>
    </edge>
    <edge id=":1185_5" function="internal">
        <lane id=":1185_5_0" index="0" speed="3.65" length="3.23" shape="1600.52,700.75 1599.62,700.74 1599.09,700.01 1598.93,698.58"/>
    </edge>
    <edge id=":1203_0" function="internal">
        <lane id=":1203_0_0" index="0" speed="6.17" length="6.04" shape="299.60,802.78 299.08,801.27 299.05,799.85 299.53,798.50 300.50,797.24"/>
    </edge>
    <edge id=":1203_1" function="internal">
        <lane id=":1203_1_0" index="0" speed="3.95" length="2.01" shape="302.76,799.50 302.44,799.92 302.28,800.37 302.29,800.85 302.46,801.35"/>
    </edge>
    <edge id=":1203_2" function="internal">
        <lane id=":1203_2_0" index="0" speed="3.65" length="1.31" shape="302.76,799.50 301.47,799.76"/>
    </edge>
    <edge id=":1203_3" function="internal">
        <lane id=":1203_3_0" index="0" speed="3.65" length="3.36" shape="301.47,799.76 301.35,799.78 300.50,799.50 300.22,798.65 300.50,797.24"/>
    </edge>
    <edge id=":1208_0" function="internal">
        <lane id=":1208_0_0" index="0" speed="7.02" length="10.67" shape="398.40,1007.20 397.93,1004.75 396.51,1003.00 394.14,1001.95 390.82,1001.60"/>
    </edge>
    <edge id=":1208_1" function="internal">
        <lane id=":1208_1_0" index="0" speed="13.89" length="15.33" shape="398.40,1007.20 398.10,1003.42 397.27,999.66 396.02,995.99 394.46,992.51"/>
    </edge>
    <edge id=":1208_2" function="internal">
        <lane id=":1208_2_0" index="0" speed="3.65" length="1.44" shape="398.40,1007.20 399.20,1006.00"/>
    </edge>
    <edge id=":1208_9" function="internal">
        <lane id=":1208_9_0" index="0" speed="3.65" length="3.23" shape="399.20,1006.00 400.00,1005.60 400.80,1006.00 401.60,1007.20"/>
    </edge>
    <edge id=":1208_3" function="internal">
        <lane id=":1208_3_0" index="0" speed="13.89" length="16.80" shape="397.33,991.08 398.94,994.78 400.30,998.94 401.25,1003.20 401.60,1007.20"/>
    </edge>
    <edge id=":1208_4" function="internal">
        <lane id=":1208_4_0" index="0" speed="7.44" length="5.30" shape="397.33,991.08 398.89,995.68 398.82,996.11"/>
    </edge>
    <edge id=":1208_5" function="internal">
        <lane id=":1208_5_0" index="0" speed="3.65" length="1.44" shape="397.33,991.08 397.15,992.51"/>
    </edge>
    <edge id=":1208_10" function="internal">
        <lane id=":1208_10_0" index="0" speed="7.44" length="11.10" shape="398.82,996.11 398.33,998.97 395.64,1000.94 390.82,1001.60"/>
    </edge>
    <edge id=":1208_11" function="internal">
        <lane id=":1208_11_0" index="0" speed="3.65" length="3.23" shape="397.15,992.51 396.61,993.22 395.72,993.22 394.46,992.51"/>
    </edge>
    <edge id=":1208_6" function="internal">
        <lane id=":1208_6_0" index="0" speed="5.74" length="9.18" shape="390.82,998.40 393.52,998.03 395.03,996.93 395.34,995.09 394.46,992.51"/>
    </edge>
    <edge id=":1208_7" function="internal">
        <lane id=":1208_7_0" index="0" speed="8.42" length="15.82" shape="390.82,998.40 395.54,998.95 398.91,1000.60 400.93,1003.35 401.60,1007.20"/>
    </edge>
    <edge id=":1208_8" function="internal">
        <lane id=":1208_8_0" index="0" speed="3.65" length="4.67" shape="390.82,998.40 392.02,999.20 392.42,1000.00 392.02,1000.80 390.82,1001.60"/>
    </edge>
    <edge id=":1210_0" function="internal">
        <lane id=":1210_0_0" index="0" speed="13.89" length="1.09" shape="399.13,1401.39 398.90,1401.16 398.76,1401.00 398.63,1400.82 398.45,1400.54"/>
    </edge>
    <edge id=":1210_1" function="internal">
        <lane id=":1210_1_0" index="0" speed="3.65" length="1.44" shape="399.13,1401.39 398.85,1399.98"/>
    </edge>
    <edge id=":1210_4" function="internal">
        <lane id=":1210_4_0" index="0" speed="3.65" length="3.23" shape="398.85,1399.98 399.13,1399.13 399.98,1398.85 401.39,1399.13"/>
    </edge>
    <edge id=":1210_2" function="internal">
        <lane id=":1210_2_0" index="0" speed="13.89" length="0.36" shape="401.17,1398.85 401.22,1398.94 401.27,1399.00 401.32,1399.05 401.39,1399.13"/>
    </edge>
    <edge id=":1210_3" function="internal">
        <lane id=":1210_3_0" index="0" speed="3.65" length="1.44" shape="401.17,1398.85 401.12,1400.29"/>
    </edge>
    <edge id=":1210_5" function="internal">
        <lane id=":1210_5_0" index="0" speed="3.65" length="3.23" shape="401.12,1400.29 400.66,1401.05 399.77,1401.14 398.45,1400.54"/>
    </edge>
    <edge id=":1241_0" function="internal">
        <lane id=":1241_0_0" index="0" speed="13.89" length="18.20" shape="507.73,1501.60 503.59,1500.89 499.11,1499.05 494.90,1496.56 491.59,1493.86"/>
    </edge>
    <edge id=":1241_1" function="internal">
        <lane id=":1241_1_0" index="0" speed="8.22" length="5.11" shape="507.73,1501.60 503.65,1500.85 502.91,1500.23"/>
    </edge>
    <edge id=":1241_2" function="internal">
        <lane id=":1241_2_0" index="0" speed="3.65" length="1.44" shape="507.73,1501.60 506.53,1500.80"/>
    </edge>
    <edge id=":1241_9" function="internal">
        <lane id=":1241_9_0" index="0" speed="8.22" length="11.72" shape="502.91,1500.23 501.00,1498.60 499.79,1494.84 500.02,1489.59"/>
    </edge>
    <edge id=":1241_10" function="internal">
        <lane id=":1241_10_0" index="0" speed="3.65" length="3.23" shape="506.53,1500.80 506.13,1500.00 506.53,1499.20 507.73,1498.40"/>
    </edge>
    <edge id=":1241_3" function="internal">
        <lane id=":1241_3_0" index="0" speed="6.80" length="11.11" shape="503.14,1490.08 502.95,1493.72 503.65,1496.32 505.24,1497.88 507.73,1498.40"/>
    </edge>
    <edge id=":1241_4" function="internal">
        <lane id=":1241_4_0" index="0" speed="7.37" length="17.63" shape="503.14,1490.08 501.65,1495.30 499.23,1497.67 495.88,1497.19 491.59,1493.86"/>
    </edge>
    <edge id=":1241_5" function="internal">
        <lane id=":1241_5_0" index="0" speed="3.64" length="4.61" shape="503.14,1490.08 502.17,1491.13 501.33,1491.39 500.62,1490.88 500.02,1489.59"/>
    </edge>
    <edge id=":1241_6" function="internal">
        <lane id=":1241_6_0" index="0" speed="5.57" length="9.38" shape="493.86,1491.59 496.14,1493.36 497.92,1493.62 499.22,1492.36 500.02,1489.59"/>
    </edge>
    <edge id=":1241_7" function="internal">
        <lane id=":1241_7_0" index="0" speed="13.05" length="15.79" shape="493.86,1491.59 496.81,1494.15 500.24,1496.32 503.95,1497.83 507.73,1498.40"/>
    </edge>
    <edge id=":1241_8" function="internal">
        <lane id=":1241_8_0" index="0" speed="3.65" length="1.34" shape="493.86,1491.59 494.12,1492.90"/>
    </edge>
    <edge id=":1241_11" function="internal">
        <lane id=":1241_11_0" index="0" speed="3.65" length="3.34" shape="494.12,1492.90 494.14,1493.01 493.86,1493.86 493.01,1494.14 491.59,1493.86"/>
    </edge>
    <edge id=":1256_0" function="internal">
        <lane id=":1256_0_0" index="0" speed="13.89" length="17.15" shape="1598.49,311.83 1598.40,294.67"/>
    </edge>
    <edge id=":1256_1" function="internal">
        <lane id=":1256_1_0" index="0" speed="7.43" length="6.07" shape="1598.49,311.83 1599.12,305.79"/>
    </edge>
    <edge id=":1256_2" function="internal">
        <lane id=":1256_2_0" index="0" speed="3.65" length="1.44" shape="1598.49,311.83 1599.29,310.62"/>
    </edge>
    <edge id=":1256_9" function="internal">
        <lane id=":1256_9_0" index="0" speed="7.43" length="13.34" shape="1599.12,305.79 1599.13,305.64 1601.18,302.82 1604.63,303.34 1609.49,307.22"/>
    </edge>
    <edge id=":1256_10" function="internal">
        <lane id=":1256_10_0" index="0" speed="3.65" length="3.23" shape="1599.29,310.62 1600.08,310.21 1600.89,310.61 1601.69,311.80"/>
    </edge>
    <edge id=":1256_3" function="internal">
        <lane id=":1256_3_0" index="0" speed="5.47" length="9.76" shape="1607.22,309.49 1604.78,307.53 1603.05,307.27 1602.02,308.69 1601.69,311.80"/>
    </edge>
    <edge id=":1256_4" function="internal">
        <lane id=":1256_4_0" index="0" speed="13.76" length="17.60" shape="1607.22,309.49 1603.36,305.25 1600.61,301.37 1598.95,297.85 1598.40,294.67"/>
    </edge>
    <edge id=":1256_5" function="internal">
        <lane id=":1256_5_0" index="0" speed="3.65" length="4.67" shape="1607.22,309.49 1606.94,308.07 1607.22,307.22 1608.07,306.94 1609.49,307.22"/>
    </edge>
    <edge id=":1256_6" function="internal">
        <lane id=":1256_6_0" index="0" speed="12.77" length="15.11" shape="1601.60,294.67 1602.09,297.21 1603.57,300.14 1606.04,303.48 1609.49,307.22"/>
    </edge>
    <edge id=":1256_7" function="internal">
        <lane id=":1256_7_0" index="0" speed="13.89" length="17.13" shape="1601.60,294.67 1601.69,311.80"/>
    </edge>
    <edge id=":1256_8" function="internal">
        <lane id=":1256_8_0" index="0" speed="3.65" length="1.44" shape="1601.60,294.67 1600.80,295.87"/>
    </edge>
    <edge id=":1256_11" function="internal">
        <lane id=":1256_11_0" index="0" speed="3.65" length="3.23" shape="1600.80,295.87 1600.00,296.27 1599.20,295.87 1598.40,294.67"/>
    </edge>
    <edge id=":1258_0" function="internal">
        <lane id=":1258_0_0" index="0" speed="6.08" length="7.74" shape="1698.87,396.61 1700.14,398.30 1700.57,400.00 1700.14,401.70 1698.87,403.39"/>
    </edge>
    <edge id=":1258_1" function="internal">
        <lane id=":1258_1_0" index="0" speed="3.65" length="1.44" shape="1698.87,396.61 1699.15,398.02"/>
    </edge>
    <edge id=":1258_4" function="internal">
        <lane id=":1258_4_0" index="0" speed="3.65" length="3.23" shape="1699.15,398.02 1698.87,398.87 1698.02,399.15 1696.61,398.87"/>
    </edge>
    <edge id=":1258_2" function="internal">
        <lane id=":1258_2_0" index="0" speed="3.90" length="2.58" shape="1696.61,401.13 1697.03,400.57 1697.17,400.00 1697.03,399.43 1696.61,398.87"/>
    </edge>
    <edge id=":1258_3" function="internal">
        <lane id=":1258_3_0" index="0" speed="3.65" length="1.30" shape="1696.61,401.13 1697.88,400.88"/>
    </edge>
    <edge id=":1258_5" function="internal">
        <lane id=":1258_5_0" index="0" speed="3.65" length="3.37" shape="1697.88,400.88 1698.02,400.85 1698.87,401.13 1699.15,401.98 1698.87,403.39"/>
    </edge>
    <edge id=":130_0" function="internal">
        <lane id=":130_0_0" index="0" speed="13.89" length="14.22" shape="1098.40,1205.72 1098.28,1202.10 1097.96,1198.63 1097.46,1195.19 1096.83,1191.61"/>
    </edge>
    <edge id=":130_1" function="internal">
        <lane id=":130_1_0" index="0" speed="10.85" length="3.38" shape="1098.40,1205.72 1098.91,1202.51 1098.96,1202.40"/>
    </edge>
    <edge id=":130_2" function="internal">
        <lane id=":130_2_0" index="0" speed="3.65" length="1.44" shape="1098.40,1205.72 1099.20,1204.52"/>
    </edge>
    <edge id=":130_9" function="internal">
        <lane id=":130_9_0" index="0" speed="10.85" length="11.60" shape="1098.96,1202.40 1100.42,1199.45 1102.95,1196.56 1106.48,1193.82"/>
    </edge>
    <edge id=":130_10" function="internal">
        <lane id=":130_10_0" index="0" speed="3.65" length="3.23" shape="1099.20,1204.52 1100.00,1204.12 1100.80,1204.52 1101.60,1205.72"/>
    </edge>
    <edge id=":130_3" function="internal">
        <lane id=":130_3_0" index="0" speed="9.70" length="11.82" shape="1108.24,1196.48 1105.33,1198.70 1103.26,1200.98 1102.01,1203.32 1101.60,1205.72"/>
    </edge>
    <edge id=":130_4" function="internal">
        <lane id=":130_4_0" index="0" speed="7.47" length="16.00" shape="1108.24,1196.48 1104.01,1198.50 1100.70,1198.36 1098.31,1196.06 1096.83,1191.61"/>
    </edge>
    <edge id=":130_5" function="internal">
        <lane id=":130_5_0" index="0" speed="3.65" length="4.65" shape="1108.24,1196.48 1106.80,1196.47 1106.03,1196.02 1105.92,1195.14 1106.48,1193.82"/>
    </edge>
    <edge id=":130_6" function="internal">
        <lane id=":130_6_0" index="0" speed="5.82" length="9.14" shape="1099.95,1191.04 1100.80,1193.57 1102.17,1194.88 1104.07,1194.96 1106.48,1193.82"/>
    </edge>
    <edge id=":130_7" function="internal">
        <lane id=":130_7_0" index="0" speed="13.89" length="14.80" shape="1099.95,1191.04 1100.60,1194.70 1101.12,1198.35 1101.47,1202.01 1101.60,1205.72"/>
    </edge>
    <edge id=":130_8" function="internal">
        <lane id=":130_8_0" index="0" speed="3.64" length="1.43" shape="1099.95,1191.04 1099.39,1192.35"/>
    </edge>
    <edge id=":130_11" function="internal">
        <lane id=":130_11_0" index="0" speed="3.64" length="3.20" shape="1099.39,1192.35 1098.68,1192.88 1097.83,1192.64 1096.83,1191.61"/>
    </edge>
    <edge id=":14_0" function="internal">
        <lane id=":14_0_0" index="0" speed="7.42" length="2.68" shape="1201.60,1099.08 1201.59,1099.87 1201.50,1100.42 1201.29,1100.93 1200.89,1101.61"/>
    </edge>
    <edge id=":14_1" function="internal">
        <lane id=":14_1_0" index="0" speed="3.65" length="1.44" shape="1201.60,1099.08 1200.80,1100.28"/>
    </edge>
    <edge id=":14_4" function="internal">
        <lane id=":14_4_0" index="0" speed="3.65" length="3.23" shape="1200.80,1100.28 1200.00,1100.68 1199.20,1100.28 1198.40,1099.08"/>
    </edge>
    <edge id=":14_2" function="internal">
        <lane id=":14_2_0" index="0" speed="13.89" length="0.89" shape="1198.16,1099.92 1198.30,1099.70 1198.37,1099.53 1198.40,1099.35 1198.40,1099.08"/>
    </edge>
    <edge id=":14_3" function="internal">
        <lane id=":14_3_0" index="0" speed="3.65" length="1.44" shape="1198.16,1099.92 1199.47,1099.32"/>
    </edge>
    <edge id=":14_5" function="internal">
        <lane id=":14_5_0" index="0" speed="3.65" length="3.24" shape="1199.47,1099.32 1200.37,1099.40 1200.84,1100.16 1200.89,1101.61"/>
    </edge>
    <edge id=":147_0" function="internal">
        <lane id=":147_0_0" index="0" speed="13.89" length="0.10" shape="1098.40,1300.00 1098.40,1300.00"/>
    </edge>