<?xml version="1.0" encoding="UTF-8"?>

<!-- generated on 2025-04-14 01:24:42 by Eclipse SUMO GUI Version 1.22.0
-->

<sumoConfiguration xmlns:xsi="http://www.w3.org/2001/XMLSchema-instance" xsi:noNamespaceSchemaLocation="http://sumo.dlr.de/xsd/sumoConfiguration.xsd">

    <input>
        <net-file value="copy6_traffic_lights.net.xml"/>
         <route-files value="copy6_trafficlights.trips.xml"/>
    </input>

</sumoConfiguration>
