<?xml version="1.0" encoding="UTF-8"?>

<!-- generated on 2025-04-02 02:08:56 by Eclipse SUMO netedit Version 1.22.0
-->

<routes xmlns:xsi="http://www.w3.org/2001/XMLSchema-instance" xsi:noNamespaceSchemaLocation="http://sumo.dlr.de/xsd/routes_file.xsd">
    <!-- Vehicles, persons and containers (sorted by depart) -->
    <flow id="f_0" begin="0.00" fromJunction="189" toJunction="830" end="100.00" vehsPerHour="1000"/>
</routes>
