<?xml version="1.0" encoding="UTF-8"?>
<routes xmlns:xsi="http://www.w3.org/2001/XMLSchema-instance" xsi:noNamespaceSchemaLocation="http://sumo.dlr.de/xsd/routes_file.xsd">

    <!-- ========== VEHICLE TYPES ========== -->
    <vType id="car" accel="2.6" decel="4.5" sigma="0.5" length="5.0" minGap="2.5" maxSpeed="70"/> 
    <vType id="bus" accel="1.2" decel="3.0" sigma="0.3" length="12.0" minGap="3.0" maxSpeed="50"/>

    <!-- ========== FLOWS ========== -->
    <flow id="f_0" type="car" begin="0.00" end="100.00" vehsPerHour="1000" fromJunction="1914" toJunction="1"/>
    <flow id="f_1" type="car" begin="0.00" end="100.00" vehsPerHour="500" fromJunction="130" toJunction="1993"/>

</routes>