<?xml version="1.0" encoding="UTF-8"?>

<!-- generated on 2025-04-22 18:24:47 by Eclipse SUMO netedit Version 1.22.0
-->

<routes xmlns:xsi="http://www.w3.org/2001/XMLSchema-instance" xsi:noNamespaceSchemaLocation="http://sumo.dlr.de/xsd/routes_file.xsd">
    <!-- Vehicles, persons and containers (sorted by depart) -->
    <flow id="f_0" begin="0.00" color="red" from="172" to="1960" via="196 -1956" end="3600.00" vehsPerHour="1800"/>
    <flow id="f_1" begin="0.00" from="-184" to="-1940" via="196 -1956" end="3600.00" vehsPerHour="1800"/>
</routes>
